Version 4
SHEET 1 1484 680
WIRE 144 -64 -256 -64
WIRE 144 -16 144 -64
WIRE 144 -16 80 -16
WIRE 192 -16 144 -16
WIRE -256 64 -256 -64
WIRE 80 96 80 64
WIRE 192 96 192 64
WIRE 496 144 256 144
WIRE -256 160 -256 144
WIRE -256 160 -320 160
WIRE 16 176 16 144
WIRE 400 176 16 176
WIRE -320 208 -320 160
WIRE 400 208 400 176
WIRE 496 208 496 144
WIRE 80 224 80 192
WIRE 128 224 80 224
WIRE 192 224 192 192
WIRE 192 224 128 224
WIRE 1280 224 976 224
WIRE 976 240 976 224
WIRE 1280 256 1280 224
WIRE 496 288 400 288
WIRE 976 336 976 320
WIRE 1280 336 976 336
WIRE -256 352 -256 240
WIRE 128 352 128 304
WIRE 128 352 -256 352
WIRE 976 368 976 336
WIRE 496 384 496 368
FLAG -320 208 0
FLAG 496 384 0
FLAG 976 368 0
SYMBOL npn 16 96 R0
SYMATTR InstName Q1
SYMATTR Value 2N2222
SYMBOL npn 256 96 M0
SYMATTR InstName Q2
SYMATTR Value 2N2222
SYMBOL res 64 -32 R0
SYMATTR InstName R1
SYMATTR Value 220
SYMBOL res 176 -32 R0
SYMATTR InstName R2
SYMATTR Value 220
SYMBOL res 112 208 R0
SYMATTR InstName R3
SYMATTR Value 4.7k
SYMBOL voltage -256 48 R0
WINDOW 123 0 0 Left 0
WINDOW 39 0 0 Left 0
SYMATTR InstName V1
SYMATTR Value 10
SYMBOL voltage -256 144 R0
WINDOW 123 0 0 Left 0
WINDOW 39 0 0 Left 0
SYMATTR InstName V2
SYMATTR Value 10
SYMBOL voltage 496 272 R0
WINDOW 123 0 0 Left 0
WINDOW 39 0 0 Left 0
SYMATTR InstName V3
SYMATTR Value 0
SYMBOL voltage 400 192 R0
WINDOW 123 0 0 Left 0
WINDOW 39 0 0 Left 0
SYMATTR InstName V4
SYMATTR Value {vdiff}
SYMBOL bv 976 224 R0
SYMATTR InstName B1
SYMATTR Value V=(V(n003)-V(n002))/(2*vdiff)
SYMBOL res 1264 240 R0
SYMATTR InstName R4
SYMATTR Value 1
SYMBOL bv 496 192 R0
SYMATTR InstName B2
SYMATTR Value V=-vdiff
TEXT -340 408 Left 2 !.op
TEXT -80 -96 Left 2 !.step dec param vdiff 1m 1 50
