Version 4
SHEET 1 1212 680
WIRE 176 -368 16 -368
WIRE 208 -368 176 -368
WIRE 448 -368 208 -368
WIRE 176 -352 176 -368
WIRE 208 -352 208 -368
WIRE 176 -240 176 -272
WIRE 208 -240 208 -272
WIRE 112 -192 -352 -192
WIRE 304 -192 272 -192
WIRE -352 -176 -352 -192
WIRE 192 -144 176 -144
WIRE 208 -144 192 -144
WIRE 448 -128 448 -368
WIRE 304 -96 304 -192
WIRE 304 -96 -352 -96
WIRE 16 -64 16 -368
WIRE 448 0 448 -48
WIRE 512 0 448 0
WIRE 192 16 192 -144
WIRE 192 16 160 16
WIRE 512 16 512 0
WIRE 160 32 160 16
WIRE 448 48 448 0
WIRE -352 64 -352 -96
WIRE 16 80 16 16
WIRE 96 80 16 80
WIRE 16 112 16 80
WIRE -352 160 -352 144
WIRE 160 160 160 128
WIRE 160 240 16 240
WIRE 448 240 448 128
WIRE 448 240 160 240
FLAG -352 160 0
FLAG 512 16 0
SYMBOL res 144 144 R0
SYMATTR InstName R1
SYMATTR Value 300
SYMBOL diode 0 112 R0
WINDOW 3 -77 4 Left 2
SYMATTR InstName D2
SYMATTR Value 1N4148
SYMBOL npn 96 32 R0
SYMATTR InstName Q1
SYMATTR Value 2N2222
SYMBOL voltage 448 32 R0
WINDOW 123 0 0 Left 0
WINDOW 39 0 0 Left 0
SYMATTR InstName V1
SYMATTR Value 10
SYMBOL res 0 -80 R0
SYMATTR InstName R3
SYMATTR Value 5.1k
SYMBOL voltage 448 -144 R0
WINDOW 123 0 0 Left 0
WINDOW 39 0 0 Left 0
SYMATTR InstName V2
SYMATTR Value 10
SYMBOL npn 112 -240 R0
WINDOW 0 -19 30 Left 2
WINDOW 3 152 66 Left 2
SYMATTR InstName Q2
SYMATTR Value 2N2222
SYMBOL npn 272 -240 M0
WINDOW 0 -16 28 Left 2
WINDOW 3 151 66 Left 2
SYMATTR InstName Q3
SYMATTR Value 2N2222
SYMBOL res 160 -368 R0
WINDOW 0 -32 32 Left 2
WINDOW 3 -48 76 Left 2
SYMATTR InstName R2
SYMATTR Value 300
SYMBOL res 192 -368 R0
SYMATTR InstName R4
SYMATTR Value 300
SYMBOL voltage -352 48 R0
WINDOW 123 0 0 Left 0
WINDOW 39 0 0 Left 0
SYMATTR InstName V3
SYMATTR Value -5
SYMBOL voltage -352 -192 R0
WINDOW 3 -86 11 Left 2
WINDOW 123 24 44 Left 2
WINDOW 39 0 0 Left 0
SYMATTR InstName V4
SYMATTR Value SINE(0 100m 1k)
SYMATTR Value2 AC 1m
SYMBOL diode 0 176 R0
WINDOW 3 -80 2 Left 2
SYMATTR InstName D1
SYMATTR Value 1N4148
TEXT -2 280 Left 2 !.tran 0 100m 5m
TEXT 264 296 Left 2 !.meas Vout RMS V(N002,N003) FROM 10m TO 95m
TEXT 272 264 Left 2 !.meas vin RMS V(N004,N005) FROM 10m TO 95m
TEXT 608 216 Left 2 !.meas Gain PARAM Vout/vin
